Version 4
SHEET 1 2068 680
WIRE 1120 -208 1120 -272
WIRE 1120 -48 1120 -128
WIRE 736 80 160 80
WIRE 976 80 800 80
WIRE 1120 96 1120 32
WIRE 1424 96 1120 96
WIRE 1120 112 1120 96
WIRE 1424 128 1424 96
WIRE 48 144 -32 144
WIRE 160 144 160 80
WIRE 160 144 128 144
WIRE 192 144 160 144
WIRE 384 144 272 144
WIRE 608 144 384 144
WIRE 976 160 976 80
WIRE 1056 160 976 160
WIRE 384 192 384 144
WIRE 1136 208 1120 208
WIRE -32 240 -32 144
WIRE 2064 240 1952 240
WIRE 384 272 336 272
WIRE 448 272 384 272
WIRE 336 304 336 272
WIRE 976 304 976 160
WIRE 448 320 448 272
WIRE 1136 320 1136 208
WIRE 1424 320 1424 208
WIRE 1520 320 1424 320
WIRE 1616 320 1520 320
WIRE 1728 320 1616 320
WIRE 1424 368 1424 320
WIRE 1520 368 1520 320
WIRE 1616 368 1616 320
WIRE 1728 384 1728 320
WIRE 1952 384 1952 240
WIRE 336 432 336 384
WIRE 400 432 336 432
WIRE 448 432 448 384
WIRE 448 432 400 432
WIRE 1136 448 1136 400
WIRE 400 496 400 432
WIRE 1424 496 1424 448
WIRE 1472 496 1424 496
WIRE 1520 496 1520 448
WIRE 1520 496 1472 496
WIRE 1616 496 1616 448
WIRE 1728 496 1728 448
WIRE 976 576 976 384
WIRE 1472 576 1472 496
WIRE 1472 576 976 576
WIRE 2064 576 2064 240
WIRE 2064 576 1824 576
FLAG 608 144 Vout
FLAG 400 496 0
FLAG -32 240 0
FLAG 1136 448 0
FLAG 1616 496 0
FLAG 1728 496 0
FLAG 1120 -272 0
FLAG 1952 464 0
SYMBOL Cap 432 320 R0
SYMATTR InstName C1
SYMATTR Value 170n
SYMBOL ind 320 288 R0
SYMATTR InstName L1
SYMATTR Value 500m
SYMBOL Voltage 144 144 R90
WINDOW 0 -32 56 VBottom 2
WINDOW 3 32 56 VTop 2
SYMATTR InstName V1
SYMATTR Value ""
SYMATTR Value2 AC 1
SYMBOL Res 368 176 R0
SYMATTR InstName R1
SYMATTR Value 2k
SYMBOL Res 288 128 R90
WINDOW 0 0 56 VBottom 2
WINDOW 3 32 56 VTop 2
SYMATTR InstName Rin
SYMATTR Value 10k
SYMBOL Res 1104 -64 R0
SYMATTR InstName R2
SYMATTR Value 40k
SYMBOL Res 1408 112 R0
SYMATTR InstName R3
SYMATTR Value 1000000
SYMBOL Res 1120 304 R0
SYMATTR InstName R4
SYMATTR Value 1000
SYMBOL Res 960 288 R0
SYMATTR InstName R5
SYMATTR Value 1.5k
SYMBOL Res 1504 352 R0
SYMATTR InstName R6
SYMATTR Value 33k
SYMBOL Res 1600 352 R0
SYMATTR InstName R8
SYMATTR Value 82k
SYMBOL Cap 1712 384 R0
SYMATTR InstName C3
SYMATTR Value 4.7µ
SYMBOL ind 1408 352 R0
SYMATTR InstName L2
SYMATTR Value 500m
SYMBOL Voltage 1120 -112 R180
WINDOW 0 24 96 Left 2
WINDOW 3 24 16 Left 2
SYMATTR InstName V2
SYMATTR Value 9
SYMBOL Cap 800 64 R90
WINDOW 0 0 32 VBottom 2
WINDOW 3 32 32 VTop 2
SYMATTR InstName C2
SYMATTR Value .1µ
SYMBOL Analog_Devices/BC550 1056 112 R0
SYMATTR InstName Q2
SYMBOL Res 1936 368 R0
SYMATTR InstName R7
SYMATTR Value 10k
SYMBOL Cap 1824 560 R90
WINDOW 0 0 32 VBottom 2
WINDOW 3 32 32 VTop 2
SYMATTR InstName C4
SYMATTR Value .01n
TEXT 512 -128 Left 2 !.ac oct 50 30 5000
