Version 4
SHEET 1 1784 712
WIRE 1744 -64 1232 -64
WIRE 240 -16 240 -32
WIRE 800 -16 800 -32
WIRE -256 16 -256 -48
WIRE 1088 32 944 32
WIRE 1360 32 1168 32
WIRE 240 48 240 -16
WIRE 800 48 800 -16
WIRE 1424 48 1424 32
WIRE 240 128 128 128
WIRE -256 144 -256 96
WIRE 240 144 240 128
WIRE 1424 144 1424 48
WIRE -128 176 -192 176
WIRE 800 176 800 128
WIRE 944 176 944 32
WIRE 944 176 800 176
WIRE 1104 176 944 176
WIRE 1232 176 1232 -64
WIRE 1232 176 1168 176
WIRE 48 192 48 128
WIRE 48 192 -16 192
WIRE 128 192 48 192
WIRE 176 192 128 192
WIRE 448 224 400 224
WIRE 576 224 528 224
WIRE 688 224 640 224
WIRE 736 224 688 224
WIRE 240 256 240 240
WIRE 400 256 400 224
WIRE 400 256 240 256
WIRE 688 256 688 224
WIRE -16 272 -16 192
WIRE 128 272 128 192
WIRE 240 272 240 256
WIRE 400 272 400 256
WIRE 1744 272 1744 -64
WIRE 1424 288 1424 224
WIRE 1744 288 1744 272
WIRE 240 304 240 272
WIRE 944 304 944 256
WIRE 944 304 880 304
WIRE 1024 304 944 304
WIRE 1088 304 1024 304
WIRE 800 320 800 272
WIRE 880 320 880 304
WIRE 944 320 944 304
WIRE 1024 336 1024 304
WIRE 1088 336 1088 304
WIRE 1232 336 1232 256
WIRE 1296 336 1232 336
WIRE 1360 336 1360 32
WIRE 1232 352 1232 336
WIRE 1424 416 1424 384
WIRE 1424 416 1392 416
WIRE -16 432 -16 352
WIRE 128 432 128 336
WIRE 240 432 240 384
WIRE 800 432 800 400
WIRE 1024 432 1024 400
WIRE 1088 432 1088 416
WIRE 1232 464 1232 432
WIRE 1424 464 1424 416
WIRE 688 496 688 336
WIRE 880 496 880 400
WIRE 880 496 688 496
WIRE 944 496 944 400
WIRE 944 496 880 496
WIRE 1136 496 944 496
WIRE 1392 496 1392 416
WIRE 1392 496 1200 496
WIRE 1424 592 1424 544
FLAG -256 144 0
FLAG 240 432 0
FLAG -16 432 0
FLAG 128 432 0
FLAG 800 432 0
FLAG 1024 432 0
FLAG 1088 432 0
FLAG 1232 464 0
FLAG 1424 592 0
FLAG 800 -16 Vin
FLAG 1424 48 Vin
FLAG 1744 272 Vout
FLAG -256 -48 Vin
FLAG 240 -16 Vin
FLAG 240 272 Vout1
SYMBOL Res 32 144 R270
WINDOW 0 32 56 VTop 2
WINDOW 3 0 56 VBottom 2
SYMATTR InstName R2
SYMATTR Value 1.8Meg
SYMBOL Res 224 288 R0
SYMATTR InstName R3
SYMATTR Value 30k
SYMBOL Res 256 144 R180
WINDOW 0 36 76 Left 2
WINDOW 3 36 40 Left 2
SYMATTR InstName R5
SYMATTR Value 2k
SYMBOL voltage -256 0 R0
SYMATTR InstName V1
SYMATTR Value 9
SYMBOL Res -32 256 R0
SYMATTR InstName R1
SYMATTR Value 2.2Meg
SYMBOL Cap 112 272 R0
SYMATTR InstName C1
SYMATTR Value 22p
SYMBOL Res 544 208 R90
WINDOW 0 0 56 VBottom 2
WINDOW 3 32 56 VTop 2
SYMATTR InstName R4
SYMATTR Value 68k
SYMBOL Cap 640 208 R90
WINDOW 0 0 32 VBottom 2
WINDOW 3 32 32 VTop 2
SYMATTR InstName C2
SYMATTR Value .01µ
SYMBOL Res 672 240 R0
SYMATTR InstName R6
SYMATTR Value 1k5
SYMBOL Res 784 32 R0
SYMATTR InstName R7
SYMATTR Value 32k
SYMBOL Res 1184 16 R90
WINDOW 0 0 56 VBottom 2
WINDOW 3 32 56 VTop 2
SYMATTR InstName R8
SYMATTR Value 470k
SYMBOL Cap 1168 160 R90
WINDOW 0 0 32 VBottom 2
WINDOW 3 32 32 VTop 2
SYMATTR InstName C3
SYMATTR Value .22µ
SYMBOL Res 784 304 R0
SYMATTR InstName R9
SYMATTR Value 600
SYMBOL Res 928 160 R0
SYMATTR InstName R10
SYMATTR Value 300k
SYMBOL Res 928 304 R0
SYMATTR InstName R11
SYMATTR Value 33k
SYMBOL ind 864 304 R0
SYMATTR InstName L1
SYMATTR Value .3
SYMBOL Cap 1008 336 R0
SYMATTR InstName C4
SYMATTR Value 4.7µ
SYMBOL Res 1072 320 R0
SYMATTR InstName R12
SYMATTR Value 60k
SYMBOL Cap 1360 320 R90
WINDOW 0 0 32 VBottom 2
WINDOW 3 32 32 VTop 2
SYMATTR InstName C5
SYMATTR Value .22µ
SYMBOL Cap 1200 480 R90
WINDOW 0 0 32 VBottom 2
WINDOW 3 32 32 VTop 2
SYMATTR InstName C6
SYMATTR Value .01µ
SYMBOL res 1216 160 R0
SYMATTR InstName R13
SYMATTR Value 100k
SYMBOL res 1216 336 R0
SYMATTR InstName R14
SYMATTR Value 0
SYMBOL Res 1408 128 R0
SYMATTR InstName R15
SYMATTR Value 1k
SYMBOL Res 1408 448 R0
SYMATTR InstName R16
SYMATTR Value 20k
SYMBOL Analog_Devices/BC550 736 176 R0
SYMATTR InstName Q3
SYMBOL Analog_Devices/BC550 1360 288 R0
SYMATTR InstName Q5
SYMBOL Cap -64 160 R90
WINDOW 0 0 32 VBottom 2
WINDOW 3 32 32 VTop 2
SYMATTR InstName C8
SYMATTR Value .01µ
SYMBOL Analog_Devices/BC517 176 144 R0
SYMATTR InstName Q1
TEXT 360 56 Left 2 !.tran 0 .1
