Version 4
SHEET 1 904 680
WIRE 512 160 -32 160
WIRE -32 240 -32 160
WIRE 512 256 512 240
WIRE 512 256 384 256
WIRE 512 288 512 256
WIRE 304 336 304 256
WIRE 304 336 240 336
WIRE 448 336 304 336
WIRE 240 432 240 336
WIRE 512 432 512 384
WIRE 240 544 240 512
WIRE 512 544 512 512
FLAG 240 544 0
FLAG -32 320 0
FLAG 512 544 0
SYMBOL Res 496 144 R0
SYMATTR InstName R2
SYMATTR Value 1k
SYMBOL Res 400 240 R90
WINDOW 0 0 56 VBottom 2
WINDOW 3 32 56 VTop 2
SYMATTR InstName R3
SYMATTR Value 1800000
SYMBOL Res 224 416 R0
WINDOW 0 36 76 Left 2
WINDOW 3 36 40 Left 2
SYMATTR InstName R5
SYMATTR Value 2200000
SYMBOL Res 528 528 R180
WINDOW 0 36 76 Left 2
WINDOW 3 36 40 Left 2
SYMATTR InstName R6
SYMATTR Value 10k
SYMBOL Voltage -32 224 R0
SYMATTR InstName Vbias
SYMATTR Value 9
SYMBOL Analog_Devices/BC517 448 288 R0
SYMATTR InstName Q2
TEXT 760 272 Left 2 !.tran .1
